6
Coordinates from ORCA-job irc_IRC_B E -599.547233162036
  F      -2.573371     -0.016582      0.042147
  Cl      1.607446      0.059244     -0.015126
  C      -0.646131     -0.015045     -0.001155
  H      -0.646476     -0.662045     -0.873277
  H      -0.629416     -0.453235      0.992185
  H      -0.683685      1.061771     -0.123249
6
Coordinates from ORCA-job irc_IRC_B E -599.551546351045
  F      -2.539927     -0.009999      0.041008
  Cl      1.636296      0.054048     -0.017447
  C      -0.710923     -0.013755     -0.000796
  H      -0.650313     -0.658935     -0.871480
  H      -0.631312     -0.450064      0.988259
  H      -0.680450      1.059493     -0.124072
6
Coordinates from ORCA-job irc_IRC_B E -599.564491424159
  F      -2.483884     -0.011117      0.038844
  Cl      1.673399      0.053489     -0.018350
  C      -0.814751     -0.002524      0.005299
  H      -0.649462     -0.656404     -0.868436
  H      -0.629013     -0.446115      0.979390
  H      -0.675065      1.044644     -0.123087
6
Coordinates from ORCA-job irc_IRC_B E -599.574515147673
  F      -2.451855     -0.011278      0.037865
  Cl      1.694669      0.053492     -0.018748
  C      -0.874220     -0.015780      0.001892
  H      -0.649695     -0.651577     -0.863007
  H      -0.627306     -0.444625      0.978629
  H      -0.670814      1.052018     -0.123904
6
Coordinates from ORCA-job irc_IRC_B E -599.583477089477
  F      -2.415381     -0.012451      0.036501
  Cl      1.720114      0.053515     -0.019205
  C      -0.939089     -0.015148      0.002341
  H      -0.650484     -0.647768     -0.858200
  H      -0.626377     -0.442054      0.973855
  H      -0.667753      1.046302     -0.123376
6
Coordinates from ORCA-job irc_IRC_B E -599.588033096751
  F      -2.392291     -0.014712      0.034653
  Cl      1.755821      0.053748     -0.019786
  C      -0.991739     -0.015798      0.004247
  H      -0.655384     -0.638518     -0.846263
  H      -0.629136     -0.435213      0.959746
  H      -0.666694      1.032393     -0.121974
6
Coordinates from ORCA-job irc_IRC_B E -599.590737959805
  F      -2.413103     -0.018950      0.032400
  Cl      1.815249      0.054247     -0.020687
  C      -1.011331     -0.015039      0.004127
  H      -0.665654     -0.629231     -0.834182
  H      -0.635700     -0.428225      0.946085
  H      -0.668225      1.016974     -0.120395
6
Coordinates from ORCA-job irc_IRC_B E -599.592740757437
  F      -2.429651     -0.021809      0.030232
  Cl      1.882569      0.054885     -0.021640
  C      -1.030842     -0.015528      0.003598
  H      -0.678543     -0.630812     -0.836394
  H      -0.645960     -0.427947      0.947416
  H      -0.675254      1.017313     -0.120826
6
Coordinates from ORCA-job irc_IRC_B E -599.594207899709
  F      -2.436708     -0.022543      0.028407
  Cl      1.950395      0.055718     -0.022416
  C      -1.041076     -0.017216      0.002540
  H      -0.695804     -0.631529     -0.836240
  H      -0.662775     -0.427354      0.945041
  H      -0.690032      1.013897     -0.121562
6
Coordinates from ORCA-job irc_IRC_B E -599.595212256048
  F      -2.456395     -0.022620      0.026466
  Cl      2.017130      0.056821     -0.022917
  C      -1.053068     -0.020406      0.001809
  H      -0.707237     -0.637473     -0.842149
  H      -0.674209     -0.430830      0.948313
  H      -0.699567      1.018333     -0.124639
6
Coordinates from ORCA-job irc_IRC_B E -599.595366705780
  F      -2.453966     -0.022648      0.026138
  Cl      2.025014      0.057001     -0.022936
  C      -1.054566     -0.020267      0.001200
  H      -0.710075     -0.636514     -0.840406
  H      -0.677142     -0.430279      0.946141
  H      -0.702234      1.015384     -0.124668
