6
Coordinates from ORCA-job irc_IRC_F E -599.547087223148
  F      -2.604561     -0.016056      0.043098
  Cl      1.590882      0.058835     -0.014957
  C      -0.547231     -0.014152     -0.002980
  H      -0.643947     -0.661016     -0.870275
  H      -0.632144     -0.453032      0.986985
  H      -0.691545      1.054398     -0.123170
6
Coordinates from ORCA-job irc_IRC_F E -599.550199933488
  F      -2.638706     -0.004737      0.045223
  Cl      1.556293      0.050254     -0.017361
  C      -0.487027     -0.011118     -0.004226
  H      -0.647406     -0.657545     -0.867861
  H      -0.633798     -0.449577      0.982223
  H      -0.687928      1.051175     -0.123873
6
Coordinates from ORCA-job irc_IRC_F E -599.554872560043
  F      -2.677020      0.002390      0.047904
  Cl      1.527073      0.045397     -0.018761
  C      -0.422598     -0.005782     -0.002739
  H      -0.649644     -0.652561     -0.861800
  H      -0.635823     -0.444686      0.971792
  H      -0.687421      1.038483     -0.122931
6
Coordinates from ORCA-job irc_IRC_F E -599.558520156261
  F      -2.713179      0.008884      0.050731
  Cl      1.504926      0.041695     -0.019765
  C      -0.369027     -0.010426     -0.006713
  H      -0.650027     -0.645403     -0.852973
  H      -0.637124     -0.440859      0.964688
  H      -0.687645      1.033309     -0.122474
6
Coordinates from ORCA-job irc_IRC_F E -599.560870505594
  F      -2.764479      0.018311      0.055165
  Cl      1.492854      0.036873     -0.021378
  C      -0.325608     -0.007205     -0.006910
  H      -0.647269     -0.637215     -0.842518
  H      -0.635287     -0.434513      0.950904
  H      -0.683280      1.016245     -0.120980
6
Coordinates from ORCA-job irc_IRC_F E -599.562361177789
  F      -2.832570      0.032661      0.061779
  Cl      1.507733      0.031371     -0.023656
  C      -0.307443     -0.009820     -0.007814
  H      -0.641943     -0.633708     -0.838413
  H      -0.630753     -0.431629      0.945186
  H      -0.676882      1.011172     -0.121021
6
Coordinates from ORCA-job irc_IRC_F E -599.563427352110
  F      -2.903803      0.051346      0.070706
  Cl      1.513039      0.024413     -0.025977
  C      -0.295062     -0.010630     -0.009453
  H      -0.633170     -0.635385     -0.840981
  H      -0.622257     -0.432414      0.946023
  H      -0.665811      1.011628     -0.121970
6
Coordinates from ORCA-job irc_IRC_F E -599.564156646045
  F      -2.972110      0.072947      0.080450
  Cl      1.520122      0.016682     -0.028390
  C      -0.290212     -0.011483     -0.012055
  H      -0.625708     -0.635931     -0.841332
  H      -0.614496     -0.433267      0.944563
  H      -0.654375      1.008614     -0.123064
6
Coordinates from ORCA-job irc_IRC_F E -599.564243949933
  F      -2.981354      0.076325      0.081872
  Cl      1.520262      0.015425     -0.028771
  C      -0.288266     -0.011997     -0.012179
  H      -0.625195     -0.636465     -0.841933
  H      -0.613762     -0.433635      0.944660
  H      -0.653161      1.008933     -0.123362
6
Coordinates from ORCA-job irc_IRC_F E -599.564324025014
  F      -2.991322      0.080026      0.083420
  Cl      1.520701      0.014040     -0.029197
  C      -0.286828     -0.012577     -0.012326
  H      -0.624566     -0.636873     -0.842353
  H      -0.612889     -0.433929      0.944499
  H      -0.651739      1.008966     -0.123657
6
Coordinates from ORCA-job irc_IRC_F E -599.564455517557
  F      -3.007040      0.085936      0.085972
  Cl      1.521570      0.011841     -0.029934
  C      -0.284932     -0.014627     -0.011638
  H      -0.623604     -0.637451     -0.843034
  H      -0.611285     -0.433994      0.943361
  H      -0.649669      1.009563     -0.124239
6
Coordinates from ORCA-job irc_IRC_F E -599.564591800773
  F      -3.024538      0.092735      0.088778
  Cl      1.522727      0.009185     -0.030741
  C      -0.283475     -0.015254     -0.012259
  H      -0.622535     -0.638023     -0.843505
  H      -0.609804     -0.434569      0.942962
  H      -0.646926      1.008849     -0.124721
6
Coordinates from ORCA-job irc_IRC_F E -599.564729370026
  F      -3.042155      0.099753      0.091643
  Cl      1.523690      0.006385     -0.031609
  C      -0.281580     -0.016565     -0.012668
  H      -0.621660     -0.638745     -0.844181
  H      -0.608412     -0.435169      0.942553
  H      -0.644391      1.008756     -0.125310
6
Coordinates from ORCA-job irc_IRC_F E -599.564831737611
  F      -3.059360      0.106819      0.094479
  Cl      1.524790      0.003422     -0.032511
  C      -0.280455     -0.017259     -0.013389
  H      -0.620848     -0.639371     -0.844630
  H      -0.607106     -0.435826      0.942061
  H      -0.641638      1.007836     -0.125825
6
Coordinates from ORCA-job irc_IRC_F E -599.564934563948
  F      -3.076773      0.113850      0.097971
  Cl      1.525507      0.000299     -0.033479
  C      -0.278187     -0.018163     -0.014558
  H      -0.620371     -0.640333     -0.845519
  H      -0.606044     -0.436659      0.941841
  H      -0.639160      1.007611     -0.126461
6
Coordinates from ORCA-job irc_IRC_F E -599.565028662464
  F      -3.093608      0.120881      0.101343
  Cl      1.526811     -0.002931     -0.034577
  C      -0.277936     -0.019360     -0.014993
  H      -0.619713     -0.640830     -0.845930
  H      -0.604698     -0.437070      0.940505
  H      -0.636374      1.006559     -0.127151
6
Coordinates from ORCA-job irc_IRC_F E -599.565123859182
  F      -3.110453      0.128392      0.104319
  Cl      1.527236     -0.006493     -0.035750
  C      -0.275825     -0.020594     -0.015727
  H      -0.619560     -0.641936     -0.847058
  H      -0.603991     -0.438174      0.940528
  H      -0.633916      1.006360     -0.127969
6
Coordinates from ORCA-job irc_IRC_F E -599.565205670952
  F      -3.127095      0.135690      0.107886
  Cl      1.528070     -0.010229     -0.036990
  C      -0.274798     -0.021844     -0.016674
  H      -0.619380     -0.642779     -0.847787
  H      -0.603089     -0.438900      0.939542
  H      -0.631276      1.005524     -0.128745
6
Coordinates from ORCA-job irc_IRC_F E -599.565279045582
  F      -3.143717      0.143172      0.111511
  Cl      1.528821     -0.014267     -0.038367
  C      -0.273798     -0.023191     -0.017593
  H      -0.619362     -0.643719     -0.848708
  H      -0.602326     -0.439766      0.938610
  H      -0.628587      1.004689     -0.129660
6
Coordinates from ORCA-job irc_IRC_F E -599.565338829538
  F      -3.160287      0.150833      0.115181
  Cl      1.529519     -0.018638     -0.039860
  C      -0.272975     -0.024746     -0.018763
  H      -0.619428     -0.644614     -0.849557
  H      -0.601686     -0.440714      0.937641
  H      -0.625832      1.003747     -0.130650