11
	Energy:       2.9786072
C         -1.16332       -0.51472        0.00158
C          0.08798        0.30313       -0.02446
H         -1.17107       -1.20772       -0.86532
H         -2.06195        0.13666       -0.05017
H         -1.20045       -1.10451        0.94107
O          1.29014       -0.32368        0.03061
C          2.50112        0.33517        0.01759
H          2.60885        0.92048       -0.92067
H          3.32140       -0.40979        0.07024
H          2.57709        1.01366        0.89417
O          0.01695        1.52243       -0.09463
