6
	Energy:       3.7978787
O         -0.06154        0.82690       -0.49273
C         -1.28290        0.20666       -0.77327
H         -0.26602        1.79044       -0.37227
H         -1.10932       -0.87955       -0.91761
H         -1.71741        0.61632       -1.71084
H         -1.98582        0.33569        0.07815
