10
autodE path point 0. E = -118.238095883376
C    -1.15648   0.15671   0.09807
C     0.21825  -0.49405   0.19756
C     1.32999   0.35826  -0.29451
H    -1.21259   1.06675   0.71427
H    -1.94916  -0.52805   0.43498
H    -1.38386   0.44906  -0.93977
H     0.41661  -0.80392   1.23868
H     0.20258  -1.44557  -0.37581
H     1.18833   1.01245  -1.16019
H     2.34623   0.22826   0.08673
10
autodE path point 1. E = -118.222903772576
C    -1.19078   0.17507   0.08386
C     0.22853  -0.37733   0.18107
C     1.37850   0.46909  -0.23551
H    -1.29678   1.13100   0.61975
H    -1.93436  -0.53304   0.48401
H    -1.42318   0.34202  -0.97964
H     0.42375  -0.85897   1.18153
H     0.40437  -1.02642  -0.71392
H     1.23959   1.30947  -0.93494
H     2.39387   0.08707  -0.02132
10
autodE path point 2. E = -118.180220827535
C    -1.20637   0.17496   0.07698
C     0.20359  -0.33191   0.23059
C     1.37528   0.45672  -0.31005
H    -1.33394   1.15453   0.56883
H    -1.93339  -0.53431   0.50675
H    -1.44055   0.28874  -0.99604
H     0.42683  -0.89174   1.17612
H     0.57600  -0.71950  -0.88965
H     1.27127   1.42856  -0.76214
H     2.38780   0.01397  -0.08409
10
autodE path point 3. E = -118.184871802568
C    -1.21074   0.16438   0.08779
C     0.15622  -0.29533   0.40262
C     1.30934   0.33231  -0.40862
H    -1.33341   1.14992   0.56901
H    -1.94653  -0.53728   0.50694
H    -1.42746   0.29048  -0.99472
H     0.42166  -0.90067   1.25527
H     0.74157  -0.59414  -1.02007
H     1.24847   1.36204  -0.76823
H     2.35308   0.00720  -0.08449
10
autodE path point 4. E = -118.217284344293
C    -1.20837   0.14648   0.08651
C     0.16799  -0.27214   0.44669
C     1.27991   0.30950  -0.40453
H    -1.34664   1.14963   0.53138
H    -1.94211  -0.53417   0.52058
H    -1.42861   0.25385  -1.00276
H     0.42295  -0.89831   1.29395
H     0.81262  -0.36568  -1.24278
H     1.28005   1.40435  -0.64061
H     2.33558  -0.02027  -0.13293
10
autodE path point 5. E = -118.244974238858
C    -1.21835   0.13998   0.03949
C     0.20252  -0.21699   0.27789
C     1.30221   0.45732  -0.45728
H    -1.44434   1.18159   0.35174
H    -1.90878  -0.51276   0.59059
H    -1.48048   0.08273  -1.03298
H     0.45452  -0.81305   1.16058
H     1.06901   0.56718  -1.53140
H     1.48736   1.48444  -0.07798
H     2.25360  -0.08799  -0.36697
